case123_4.m
function mpc = case_ieee123
%   Power flow data for IEEE 123 bus test case.
%   Please see CASEFORMAT for details on the case file format.
%
%	This testbed is distributed in the hope that it will be useful, but without any warranty.
%	We do request that publications in which this testbed is adopted, explicitly acknowledge that fact by citing:
%
%	S. Bolognani, S. Zampieri (2014)
%	"On the existence and linear approximation of the power flow solution in power distribution networks"
%	Preprint available at http://arxiv.org/abs/1403.5031

%% MATPOWER Case Format : Version 2
mpc.version = '2';

%%-----  Power Flow Data  -----%%
%% system MVA base
mpc.baseMVA = 1;

%% bus data
%	bus_i	type	Pd	Qd	Gs	Bs	area	Vm	Va	baseKV	zone	Vmax	Vmin
mpc.bus = [
	1	1	0.160	0.080	0.000	0.000	1	1	0	4.16	1	1.1	0.9	;
	7	1	0.020	0.010	0.000	0.000	1	1	0	4.16	1	1.1	0.9	;
	8	1	0.120	0.060	0.000	0.000	1	1	0	4.16	1	1.1	0.9	;
	13	1	0.100	0.050	0.000	0.000	1	1	0	4.16	1	1.1	0.9	;
	52	1	0.040	0.020	0.000	0.000	1	1	0	4.16	1	1.1	0.9	;
	53	1	0.040	0.020	0.000	0.000	1	1	0	4.16	1	1.1	0.9	;
	54	1	0.000	0.000	0.000	0.000	1	1	0	4.16	1	1.1	0.9	;
	55	1	0.020	0.010	0.000	0.000	1	1	0	4.16	1	1.1	0.9	;
	56	1	0.020	0.010	0.000	0.000	1	1	0	4.16	1	1.1	0.9	;
	57	1	0.040	0.020	0.000	0.000	1	1	0	4.16	1	1.1	0.9	;
	60	1	0.020	0.010	0.000	0.000	1	1	0	4.16	1	1.1	0.9	;
	62	1	0.040	0.020	0.000	0.000	1	1	0	4.16	1	1.1	0.9	;
	63	1	0.040	0.020	0.000	0.000	1	1	0	4.16	1	1.1	0.9	;
	64	1	0.075	0.035	0.000	0.000	1	1	0	4.16	1	1.1	0.9	;
	65	1	0.140	0.100	0.000	0.000	1	1	0	4.16	1	1.1	0.9	;
	66	1	0.075	0.035	0.000	0.000	1	1	0	4.16	1	1.1	0.9	;
	67	1	0.120	0.060	0.000	0.000	1	1	0	4.16	1	1.1	0.9	;
	72	1	0.120	0.060	0.000	0.000	1	1	0	4.16	1	1.1	0.9	;
	76	1	0.245	0.180	0.000	0.000	1	1	0	4.16	1	1.1	0.9	;
	77	1	0.040	0.020	0.000	0.000	1	1	0	4.16	1	1.1	0.9	;
	78	1	0.000	0.000	0.000	0.000	1	1	0	4.16	1	1.1	0.9	;
	79	1	0.040	0.020	0.000	0.000	1	1	0	4.16	1	1.1	0.9	;
	80	1	0.040	0.020	0.000	0.000	1	1	0	4.16	1	1.1	0.9	;
	81	1	0.060	0.030	0.000	0.000	1	1	0	4.16	1	1.1	0.9	;
	82	1	0.040	0.020	0.000	0.000	1	1	0	4.16	1	1.1	0.9	;
	83	1	0.020	0.010	0.000	0.000	1	1	0	4.16	1	1.1	0.9	;
	86	1	0.020	0.010	0.000	0.000	1	1	0	4.16	1	1.1	0.9	;
	87	1	0.080	0.040	0.000	0.000	1	1	0	4.16	1	1.1	0.9	;
	89	1	0.040	0.020	0.000	0.000	1	1	0	4.16	1	1.1	0.9	;
	91	1	0.040	0.020	0.000	0.000	1	1	0	4.16	1	1.1	0.9	;
	93	1	0.040	0.020	0.000	0.000	1	1	0	4.16	1	1.1	0.9	;
	95	1	0.040	0.020	0.000	0.000	1	1	0	4.16	1	1.1	0.9	;
	97	1	0.000	0.000	0.000	0.000	1	1	0	4.16	1	1.1	0.9	;
	98	1	0.040	0.020	0.000	0.000	1	1	0	4.16	1	1.1	0.9	;
	99	1	0.040	0.020	0.000	0.000	1	1	0	4.16	1	1.1	0.9	;
	100	1	0.040	0.020	0.000	0.000	1	1	0	4.16	1	1.1	0.9	;
	101	1	0.100	0.050	0.000	0.000	1	1	0	4.16	1	1.1	0.9	;
	105	1	0.080	0.040	0.000	0.000	1	1	0	4.16	1	1.1	0.9	;
	108	1	0.140	0.070	0.000	0.000	1	1	0	4.16	1	1.1	0.9	;
	18	1	0.080	0.040	0.000	0.000	1	1	0	4.16	1	1.1	0.9	;
	21	1	0.040	0.020	0.000	0.000	1	1	0	4.16	1	1.1	0.9	;
	23	1	0.040	0.020	0.000	0.000	1	1	0	4.16	1	1.1	0.9	;
	25	1	0.080	0.040	0.000	0.000	1	1	0	4.16	1	1.1	0.9	;
	28	1	0.040	0.020	0.000	0.000	1	1	0	4.16	1	1.1	0.9	;
	29	1	0.040	0.020	0.000	0.000	1	1	0	4.16	1	1.1	0.9	;
	30	1	0.040	0.020	0.000	0.000	1	1	0	4.16	1	1.1	0.9	;
	35	1	0.120	0.060	0.000	0.000	1	1	0	4.16	1	1.1	0.9	;
	40	1	0.020	0.010	0.000	0.000	1	1	0	4.16	1	1.1	0.9	;
	42	1	0.060	0.030	0.000	0.000	1	1	0	4.16	1	1.1	0.9	;
	44	1	0.040	0.020	0.000	0.000	1	1	0	4.16	1	1.1	0.9	;
	47	1	0.105	0.075	0.000	0.000	1	1	0	4.16	1	1.1	0.9	;
	48	1	0.210	0.150	0.000	0.000	1	1	0	4.16	1	1.1	0.9	;
	49	1	0.140	0.095	0.000	0.000	1	1	0	4.16	1	1.1	0.9	;
	50	1	0.040	0.020	0.000	0.000	1	1	0	4.16	1	1.1	0.9	;
	51	1	0.020	0.010	0.000	0.000	1	1	0	4.16	1	1.1	0.9	;
	150	3	0.000	0.000	0.000	0.000	1	1	0	4.16	1	1.1	0.9	;
	%% Buses missing from original 123 bus case--no load for now
	61	1	0.000	0.000	0.000	0.000	1	1	0	4.16	1	1.1	0.9	;
	94	1	0.000	0.000	0.000	0.000	1	1	0	4.16	1	1.1	0.9	;
	135	1	0.000	0.000	0.000	0.000	1	1	0	4.16	1	1.1	0.9	;
	149	1	0.000	0.000	0.000	0.000	1	1	0	4.16	1	1.1	0.9	;
	151	1	0.000	0.000	0.000	0.000	1	1	0	4.16	1	1.1	0.9	;
	152	1	0.000	0.000	0.000	0.000	1	1	0	4.16	1	1.1	0.9	;
	160	1	0.000	0.000	0.000	0.000	1	1	0	4.16	1	1.1	0.9	;
%	195	1	0.000	0.000	0.000	0.000	1	1	0	4.16	1	1.1	0.9	;
	197	1	0.000	0.000	0.000	0.000	1	1	0	4.16	1	1.1	0.9	;
	250	1	0.000	0.000	0.000	0.000	1	1	0	4.16	1	1.1	0.9	;
%	251	1	0.000	0.000	0.000	0.000	1	1	0	4.16	1	1.1	0.9	;
	300	1	0.000	0.000	0.000	0.000	1	1	0	4.16	1	1.1	0.9	;
%	350	1	0.000	0.000	0.000	0.000	1	1	0	4.16	1	1.1	0.9	;
	450	1	0.000	0.000	0.000	0.000	1	1	0	4.16	1	1.1	0.9	;
%	451	1	0.000	0.000	0.000	0.000	1	1	0	4.16	1	1.1	0.9	;
%	610	1	0.000	0.000	0.000	0.000	1	1	0	4.16	1	1.1	0.9	;

%copy 2
	611	1	0.160	0.080	0.000	0.000	1	1	0	4.16	1	1.1	0.9	;
	617	1	0.020	0.010	0.000	0.000	1	1	0	4.16	1	1.1	0.9	;
	618	1	0.120	0.060	0.000	0.000	1	1	0	4.16	1	1.1	0.9	;
	623	1	0.100	0.050	0.000	0.000	1	1	0	4.16	1	1.1	0.9	;
	662	1	0.040	0.020	0.000	0.000	1	1	0	4.16	1	1.1	0.9	;
	663	1	0.040	0.020	0.000	0.000	1	1	0	4.16	1	1.1	0.9	;
	664	1	0.000	0.000	0.000	0.000	1	1	0	4.16	1	1.1	0.9	;
	665	1	0.020	0.010	0.000	0.000	1	1	0	4.16	1	1.1	0.9	;
	666	1	0.020	0.010	0.000	0.000	1	1	0	4.16	1	1.1	0.9	;
	667	1	0.040	0.020	0.000	0.000	1	1	0	4.16	1	1.1	0.9	;
	670	1	0.020	0.010	0.000	0.000	1	1	0	4.16	1	1.1	0.9	;
	672	1	0.040	0.020	0.000	0.000	1	1	0	4.16	1	1.1	0.9	;
	673	1	0.040	0.020	0.000	0.000	1	1	0	4.16	1	1.1	0.9	;
	674	1	0.075	0.035	0.000	0.000	1	1	0	4.16	1	1.1	0.9	;
	675	1	0.140	0.100	0.000	0.000	1	1	0	4.16	1	1.1	0.9	;
	676	1	0.075	0.035	0.000	0.000	1	1	0	4.16	1	1.1	0.9	;
	677	1	0.120	0.060	0.000	0.000	1	1	0	4.16	1	1.1	0.9	;
	682	1	0.120	0.060	0.000	0.000	1	1	0	4.16	1	1.1	0.9	;
	686	1	0.245	0.180	0.000	0.000	1	1	0	4.16	1	1.1	0.9	;
	687	1	0.040	0.020	0.000	0.000	1	1	0	4.16	1	1.1	0.9	;
	688	1	0.000	0.000	0.000	0.000	1	1	0	4.16	1	1.1	0.9	;
	689	1	0.040	0.020	0.000	0.000	1	1	0	4.16	1	1.1	0.9	;
	690	1	0.040	0.020	0.000	0.000	1	1	0	4.16	1	1.1	0.9	;
	691	1	0.060	0.030	0.000	0.000	1	1	0	4.16	1	1.1	0.9	;
	692	1	0.040	0.020	0.000	0.000	1	1	0	4.16	1	1.1	0.9	;
	693	1	0.020	0.010	0.000	0.000	1	1	0	4.16	1	1.1	0.9	;
	696	1	0.020	0.010	0.000	0.000	1	1	0	4.16	1	1.1	0.9	;
	697	1	0.080	0.040	0.000	0.000	1	1	0	4.16	1	1.1	0.9	;
	699	1	0.040	0.020	0.000	0.000	1	1	0	4.16	1	1.1	0.9	;
	701	1	0.040	0.020	0.000	0.000	1	1	0	4.16	1	1.1	0.9	;
	703	1	0.040	0.020	0.000	0.000	1	1	0	4.16	1	1.1	0.9	;
	705	1	0.040	0.020	0.000	0.000	1	1	0	4.16	1	1.1	0.9	;
	707	1	0.000	0.000	0.000	0.000	1	1	0	4.16	1	1.1	0.9	;
	708	1	0.040	0.020	0.000	0.000	1	1	0	4.16	1	1.1	0.9	;
	709	1	0.040	0.020	0.000	0.000	1	1	0	4.16	1	1.1	0.9	;
	710	1	0.040	0.020	0.000	0.000	1	1	0	4.16	1	1.1	0.9	;
	711	1	0.100	0.050	0.000	0.000	1	1	0	4.16	1	1.1	0.9	;
	715	1	0.080	0.040	0.000	0.000	1	1	0	4.16	1	1.1	0.9	;
	718	1	0.140	0.070	0.000	0.000	1	1	0	4.16	1	1.1	0.9	;
	628	1	0.080	0.040	0.000	0.000	1	1	0	4.16	1	1.1	0.9	;
	631	1	0.040	0.020	0.000	0.000	1	1	0	4.16	1	1.1	0.9	;
	633	1	0.040	0.020	0.000	0.000	1	1	0	4.16	1	1.1	0.9	;
	635	1	0.080	0.040	0.000	0.000	1	1	0	4.16	1	1.1	0.9	;
	638	1	0.040	0.020	0.000	0.000	1	1	0	4.16	1	1.1	0.9	;
	639	1	0.040	0.020	0.000	0.000	1	1	0	4.16	1	1.1	0.9	;
	640	1	0.040	0.020	0.000	0.000	1	1	0	4.16	1	1.1	0.9	;
	645	1	0.120	0.060	0.000	0.000	1	1	0	4.16	1	1.1	0.9	;
	650	1	0.020	0.010	0.000	0.000	1	1	0	4.16	1	1.1	0.9	;
	652	1	0.060	0.030	0.000	0.000	1	1	0	4.16	1	1.1	0.9	;
	654	1	0.040	0.020	0.000	0.000	1	1	0	4.16	1	1.1	0.9	;
	657	1	0.105	0.075	0.000	0.000	1	1	0	4.16	1	1.1	0.9	;
	658	1	0.210	0.150	0.000	0.000	1	1	0	4.16	1	1.1	0.9	;
	659	1	0.140	0.095	0.000	0.000	1	1	0	4.16	1	1.1	0.9	;
	660	1	0.040	0.020	0.000	0.000	1	1	0	4.16	1	1.1	0.9	;
	661	1	0.020	0.010	0.000	0.000	1	1	0	4.16	1	1.1	0.9	;
	760	3	0.000	0.000	0.000	0.000	1	1	0	4.16	1	1.1	0.9	;
	%% Buses missing from original 123 bus case--no load for now
	671	1	0.000	0.000	0.000	0.000	1	1	0	4.16	1	1.1	0.9	;
	704	1	0.000	0.000	0.000	0.000	1	1	0	4.16	1	1.1	0.9	;
	745	1	0.000	0.000	0.000	0.000	1	1	0	4.16	1	1.1	0.9	;
	759	1	0.000	0.000	0.000	0.000	1	1	0	4.16	1	1.1	0.9	;
	761	1	0.000	0.000	0.000	0.000	1	1	0	4.16	1	1.1	0.9	;
	762	1	0.000	0.000	0.000	0.000	1	1	0	4.16	1	1.1	0.9	;
	770	1	0.000	0.000	0.000	0.000	1	1	0	4.16	1	1.1	0.9	;
%	805	1	0.000	0.000	0.000	0.000	1	1	0	4.16	1	1.1	0.9	;
	807	1	0.000	0.000	0.000	0.000	1	1	0	4.16	1	1.1	0.9	;
	860	1	0.000	0.000	0.000	0.000	1	1	0	4.16	1	1.1	0.9	;
%	861	1	0.000	0.000	0.000	0.000	1	1	0	4.16	1	1.1	0.9	;
	910	1	0.000	0.000	0.000	0.000	1	1	0	4.16	1	1.1	0.9	;
%	960	1	0.000	0.000	0.000	0.000	1	1	0	4.16	1	1.1	0.9	;
	1060	1	0.000	0.000	0.000	0.000	1	1	0	4.16	1	1.1	0.9	;
%	1061	1	0.000	0.000	0.000	0.000	1	1	0	4.16	1	1.1	0.9	;
%	1220	1	0.000	0.000	0.000	0.000	1	1	0	4.16	1	1.1	0.9	;


%copy 3:
	1221	1	0.160	0.080	0.000	0.000	1	1	0	4.16	1	1.1	0.9	;
	1227	1	0.020	0.010	0.000	0.000	1	1	0	4.16	1	1.1	0.9	;
	1228	1	0.120	0.060	0.000	0.000	1	1	0	4.16	1	1.1	0.9	;
	1233	1	0.100	0.050	0.000	0.000	1	1	0	4.16	1	1.1	0.9	;
	1272	1	0.040	0.020	0.000	0.000	1	1	0	4.16	1	1.1	0.9	;
	1273	1	0.040	0.020	0.000	0.000	1	1	0	4.16	1	1.1	0.9	;
	1274	1	0.000	0.000	0.000	0.000	1	1	0	4.16	1	1.1	0.9	;
	1275	1	0.020	0.010	0.000	0.000	1	1	0	4.16	1	1.1	0.9	;
	1276	1	0.020	0.010	0.000	0.000	1	1	0	4.16	1	1.1	0.9	;
	1277	1	0.040	0.020	0.000	0.000	1	1	0	4.16	1	1.1	0.9	;
	1280	1	0.020	0.010	0.000	0.000	1	1	0	4.16	1	1.1	0.9	;
	1282	1	0.040	0.020	0.000	0.000	1	1	0	4.16	1	1.1	0.9	;
	1283	1	0.040	0.020	0.000	0.000	1	1	0	4.16	1	1.1	0.9	;
	1284	1	0.075	0.035	0.000	0.000	1	1	0	4.16	1	1.1	0.9	;
	1285	1	0.140	0.100	0.000	0.000	1	1	0	4.16	1	1.1	0.9	;
	1286	1	0.075	0.035	0.000	0.000	1	1	0	4.16	1	1.1	0.9	;
	1287	1	0.120	0.060	0.000	0.000	1	1	0	4.16	1	1.1	0.9	;
	1292	1	0.120	0.060	0.000	0.000	1	1	0	4.16	1	1.1	0.9	;
	1296	1	0.245	0.180	0.000	0.000	1	1	0	4.16	1	1.1	0.9	;
	1297	1	0.040	0.020	0.000	0.000	1	1	0	4.16	1	1.1	0.9	;
	1298	1	0.000	0.000	0.000	0.000	1	1	0	4.16	1	1.1	0.9	;
	1299	1	0.040	0.020	0.000	0.000	1	1	0	4.16	1	1.1	0.9	;
	1300	1	0.040	0.020	0.000	0.000	1	1	0	4.16	1	1.1	0.9	;
	1301	1	0.060	0.030	0.000	0.000	1	1	0	4.16	1	1.1	0.9	;
	1302	1	0.040	0.020	0.000	0.000	1	1	0	4.16	1	1.1	0.9	;
	1303	1	0.020	0.010	0.000	0.000	1	1	0	4.16	1	1.1	0.9	;
	1306	1	0.020	0.010	0.000	0.000	1	1	0	4.16	1	1.1	0.9	;
	1307	1	0.080	0.040	0.000	0.000	1	1	0	4.16	1	1.1	0.9	;
	1309	1	0.040	0.020	0.000	0.000	1	1	0	4.16	1	1.1	0.9	;
	1311	1	0.040	0.020	0.000	0.000	1	1	0	4.16	1	1.1	0.9	;
	1313	1	0.040	0.020	0.000	0.000	1	1	0	4.16	1	1.1	0.9	;
	1315	1	0.040	0.020	0.000	0.000	1	1	0	4.16	1	1.1	0.9	;
	1317	1	0.000	0.000	0.000	0.000	1	1	0	4.16	1	1.1	0.9	;
	1318	1	0.040	0.020	0.000	0.000	1	1	0	4.16	1	1.1	0.9	;
	1319	1	0.040	0.020	0.000	0.000	1	1	0	4.16	1	1.1	0.9	;
	1320	1	0.040	0.020	0.000	0.000	1	1	0	4.16	1	1.1	0.9	;
	1321	1	0.100	0.050	0.000	0.000	1	1	0	4.16	1	1.1	0.9	;
	1325	1	0.080	0.040	0.000	0.000	1	1	0	4.16	1	1.1	0.9	;
	1328	1	0.140	0.070	0.000	0.000	1	1	0	4.16	1	1.1	0.9	;
	1238	1	0.080	0.040	0.000	0.000	1	1	0	4.16	1	1.1	0.9	;
	1241	1	0.040	0.020	0.000	0.000	1	1	0	4.16	1	1.1	0.9	;
	1243	1	0.040	0.020	0.000	0.000	1	1	0	4.16	1	1.1	0.9	;
	1245	1	0.080	0.040	0.000	0.000	1	1	0	4.16	1	1.1	0.9	;
	1248	1	0.040	0.020	0.000	0.000	1	1	0	4.16	1	1.1	0.9	;
	1249	1	0.040	0.020	0.000	0.000	1	1	0	4.16	1	1.1	0.9	;
	1250	1	0.040	0.020	0.000	0.000	1	1	0	4.16	1	1.1	0.9	;
	1255	1	0.120	0.060	0.000	0.000	1	1	0	4.16	1	1.1	0.9	;
	1260	1	0.020	0.010	0.000	0.000	1	1	0	4.16	1	1.1	0.9	;
	1262	1	0.060	0.030	0.000	0.000	1	1	0	4.16	1	1.1	0.9	;
	1264	1	0.040	0.020	0.000	0.000	1	1	0	4.16	1	1.1	0.9	;
	1267	1	0.105	0.075	0.000	0.000	1	1	0	4.16	1	1.1	0.9	;
	1268	1	0.210	0.150	0.000	0.000	1	1	0	4.16	1	1.1	0.9	;
	1269	1	0.140	0.095	0.000	0.000	1	1	0	4.16	1	1.1	0.9	;
	1270	1	0.040	0.020	0.000	0.000	1	1	0	4.16	1	1.1	0.9	;
	1271	1	0.020	0.010	0.000	0.000	1	1	0	4.16	1	1.1	0.9	;
	1370	3	0.000	0.000	0.000	0.000	1	1	0	4.16	1	1.1	0.9	;
	%% Buses missing from original 123 bus case--no load for now
	1281	1	0.000	0.000	0.000	0.000	1	1	0	4.16	1	1.1	0.9	;
	1314	1	0.000	0.000	0.000	0.000	1	1	0	4.16	1	1.1	0.9	;
	1355	1	0.000	0.000	0.000	0.000	1	1	0	4.16	1	1.1	0.9	;
	1369	1	0.000	0.000	0.000	0.000	1	1	0	4.16	1	1.1	0.9	;
	1371	1	0.000	0.000	0.000	0.000	1	1	0	4.16	1	1.1	0.9	;
	1372	1	0.000	0.000	0.000	0.000	1	1	0	4.16	1	1.1	0.9	;
	1380	1	0.000	0.000	0.000	0.000	1	1	0	4.16	1	1.1	0.9	;
%	1415	1	0.000	0.000	0.000	0.000	1	1	0	4.16	1	1.1	0.9	;
	1417	1	0.000	0.000	0.000	0.000	1	1	0	4.16	1	1.1	0.9	;
	1470	1	0.000	0.000	0.000	0.000	1	1	0	4.16	1	1.1	0.9	;
%	1471	1	0.000	0.000	0.000	0.000	1	1	0	4.16	1	1.1	0.9	;
	1520	1	0.000	0.000	0.000	0.000	1	1	0	4.16	1	1.1	0.9	;
%	1570	1	0.000	0.000	0.000	0.000	1	1	0	4.16	1	1.1	0.9	;
	1670	1	0.000	0.000	0.000	0.000	1	1	0	4.16	1	1.1	0.9	;
%	1671	1	0.000	0.000	0.000	0.000	1	1	0	4.16	1	1.1	0.9	;
%	1830	1	0.000	0.000	0.000	0.000	1	1	0	4.16	1	1.1	0.9	;


%copy 4:

	1831	1	0.160	0.080	0.000	0.000	1	1	0	4.16	1	1.1	0.9	;
	1837	1	0.020	0.010	0.000	0.000	1	1	0	4.16	1	1.1	0.9	;
	1838	1	0.120	0.060	0.000	0.000	1	1	0	4.16	1	1.1	0.9	;
	1843	1	0.100	0.050	0.000	0.000	1	1	0	4.16	1	1.1	0.9	;
	1882	1	0.040	0.020	0.000	0.000	1	1	0	4.16	1	1.1	0.9	;
	1883	1	0.040	0.020	0.000	0.000	1	1	0	4.16	1	1.1	0.9	;
	1884	1	0.000	0.000	0.000	0.000	1	1	0	4.16	1	1.1	0.9	;
	1885	1	0.020	0.010	0.000	0.000	1	1	0	4.16	1	1.1	0.9	;
	1886	1	0.020	0.010	0.000	0.000	1	1	0	4.16	1	1.1	0.9	;
	1887	1	0.040	0.020	0.000	0.000	1	1	0	4.16	1	1.1	0.9	;
	1890	1	0.020	0.010	0.000	0.000	1	1	0	4.16	1	1.1	0.9	;
	1892	1	0.040	0.020	0.000	0.000	1	1	0	4.16	1	1.1	0.9	;
	1893	1	0.040	0.020	0.000	0.000	1	1	0	4.16	1	1.1	0.9	;
	1894	1	0.075	0.035	0.000	0.000	1	1	0	4.16	1	1.1	0.9	;
	1895	1	0.140	0.100	0.000	0.000	1	1	0	4.16	1	1.1	0.9	;
	1896	1	0.075	0.035	0.000	0.000	1	1	0	4.16	1	1.1	0.9	;
	1897	1	0.120	0.060	0.000	0.000	1	1	0	4.16	1	1.1	0.9	;
	1902	1	0.120	0.060	0.000	0.000	1	1	0	4.16	1	1.1	0.9	;
	1906	1	0.245	0.180	0.000	0.000	1	1	0	4.16	1	1.1	0.9	;
	1907	1	0.040	0.020	0.000	0.000	1	1	0	4.16	1	1.1	0.9	;
	1908	1	0.000	0.000	0.000	0.000	1	1	0	4.16	1	1.1	0.9	;
	1909	1	0.040	0.020	0.000	0.000	1	1	0	4.16	1	1.1	0.9	;
	1910	1	0.040	0.020	0.000	0.000	1	1	0	4.16	1	1.1	0.9	;
	1911	1	0.060	0.030	0.000	0.000	1	1	0	4.16	1	1.1	0.9	;
	1912	1	0.040	0.020	0.000	0.000	1	1	0	4.16	1	1.1	0.9	;
	1913	1	0.020	0.010	0.000	0.000	1	1	0	4.16	1	1.1	0.9	;
	1916	1	0.020	0.010	0.000	0.000	1	1	0	4.16	1	1.1	0.9	;
	1917	1	0.080	0.040	0.000	0.000	1	1	0	4.16	1	1.1	0.9	;
	1919	1	0.040	0.020	0.000	0.000	1	1	0	4.16	1	1.1	0.9	;
	1921	1	0.040	0.020	0.000	0.000	1	1	0	4.16	1	1.1	0.9	;
	1923	1	0.040	0.020	0.000	0.000	1	1	0	4.16	1	1.1	0.9	;
	1925	1	0.040	0.020	0.000	0.000	1	1	0	4.16	1	1.1	0.9	;
	1927	1	0.000	0.000	0.000	0.000	1	1	0	4.16	1	1.1	0.9	;
	1928	1	0.040	0.020	0.000	0.000	1	1	0	4.16	1	1.1	0.9	;
	1929	1	0.040	0.020	0.000	0.000	1	1	0	4.16	1	1.1	0.9	;
	1930	1	0.040	0.020	0.000	0.000	1	1	0	4.16	1	1.1	0.9	;
	1931	1	0.100	0.050	0.000	0.000	1	1	0	4.16	1	1.1	0.9	;
	1935	1	0.080	0.040	0.000	0.000	1	1	0	4.16	1	1.1	0.9	;
	1938	1	0.140	0.070	0.000	0.000	1	1	0	4.16	1	1.1	0.9	;
	1848	1	0.080	0.040	0.000	0.000	1	1	0	4.16	1	1.1	0.9	;
	1851	1	0.040	0.020	0.000	0.000	1	1	0	4.16	1	1.1	0.9	;
	1853	1	0.040	0.020	0.000	0.000	1	1	0	4.16	1	1.1	0.9	;
	1855	1	0.080	0.040	0.000	0.000	1	1	0	4.16	1	1.1	0.9	;
	1858	1	0.040	0.020	0.000	0.000	1	1	0	4.16	1	1.1	0.9	;
	1859	1	0.040	0.020	0.000	0.000	1	1	0	4.16	1	1.1	0.9	;
	1860	1	0.040	0.020	0.000	0.000	1	1	0	4.16	1	1.1	0.9	;
	1865	1	0.120	0.060	0.000	0.000	1	1	0	4.16	1	1.1	0.9	;
	1870	1	0.020	0.010	0.000	0.000	1	1	0	4.16	1	1.1	0.9	;
	1872	1	0.060	0.030	0.000	0.000	1	1	0	4.16	1	1.1	0.9	;
	1874	1	0.040	0.020	0.000	0.000	1	1	0	4.16	1	1.1	0.9	;
	1877	1	0.105	0.075	0.000	0.000	1	1	0	4.16	1	1.1	0.9	;
	1878	1	0.210	0.150	0.000	0.000	1	1	0	4.16	1	1.1	0.9	;
	1879	1	0.140	0.095	0.000	0.000	1	1	0	4.16	1	1.1	0.9	;
	1880	1	0.040	0.020	0.000	0.000	1	1	0	4.16	1	1.1	0.9	;
	1881	1	0.020	0.010	0.000	0.000	1	1	0	4.16	1	1.1	0.9	;
	1980	3	0.000	0.000	0.000	0.000	1	1	0	4.16	1	1.1	0.9	;
	%% Buses missing from original 123 bus case--no load for now
	1891	1	0.000	0.000	0.000	0.000	1	1	0	4.16	1	1.1	0.9	;
	1924	1	0.000	0.000	0.000	0.000	1	1	0	4.16	1	1.1	0.9	;
	1965	1	0.000	0.000	0.000	0.000	1	1	0	4.16	1	1.1	0.9	;
	1979	1	0.000	0.000	0.000	0.000	1	1	0	4.16	1	1.1	0.9	;
	1981	1	0.000	0.000	0.000	0.000	1	1	0	4.16	1	1.1	0.9	;
	1982	1	0.000	0.000	0.000	0.000	1	1	0	4.16	1	1.1	0.9	;
	1990	1	0.000	0.000	0.000	0.000	1	1	0	4.16	1	1.1	0.9	;
%	2025	1	0.000	0.000	0.000	0.000	1	1	0	4.16	1	1.1	0.9	;
	2027	1	0.000	0.000	0.000	0.000	1	1	0	4.16	1	1.1	0.9	;
	2080	1	0.000	0.000	0.000	0.000	1	1	0	4.16	1	1.1	0.9	;
%	2081	1	0.000	0.000	0.000	0.000	1	1	0	4.16	1	1.1	0.9	;
	2130	1	0.000	0.000	0.000	0.000	1	1	0	4.16	1	1.1	0.9	;
%	2180	1	0.000	0.000	0.000	0.000	1	1	0	4.16	1	1.1	0.9	;
	2280	1	0.000	0.000	0.000	0.000	1	1	0	4.16	1	1.1	0.9	;
%	2281	1	0.000	0.000	0.000	0.000	1	1	0	4.16	1	1.1	0.9	;
%	2440	1	0.000	0.000	0.000	0.000	1	1	0	4.16	1	1.1	0.9	;
];

%% generator data
%	bus	Pg	Qg	Qmax	Qmin	Vg	mBase	status	Pmax	Pmin	Pc1	Pc2	Qc1min	Qc1max	Qc2min	Qc2max	ramp_agc	ramp_10	ramp_30	ramp_q	apf
mpc.gen = [
	150	0	0	200	-200	1	1	1	200	-200	0	0	0	0	0	0	0	0	0	0	0;
	760	0	0	200	-200	1	1	1	200	-200	0	0	0	0	0	0	0	0	0	0	0;
	1370	0	0	200	-200	1	1	1	200	-200	0	0	0	0	0	0	0	0	0	0	0;
	1980	0	0	200	-200	1	1	1	200	-200	0	0	0	0	0	0	0	0	0	0	0;
];

%% branch data
%	fbus	tbus	r	x	b	rateA	rateB	rateC	ratio	angle	status	angmin	angmax
mpc.branch = [
	1	7	0.0010048967	0.0020588120	2.27077703696544E-008	100	100	100	0	0	1	-360	360	;
	7	8	0.0006699312	0.0013725413	1.51385135797696E-008	100	100	100	0	0	1	-360	360	;
	8	13	0.0010048967	0.0020588120	2.27077703696544E-008	100	100	100	0	0	1	-360	360	;
	52	53	0.0006699312	0.0013725413	1.51385135797696E-008	100	100	100	0	0	1	-360	360	;
	53	54	0.0004187070	0.0008578383	9.46157098735599E-009	100	100	100	0	0	1	-360	360	;
	54	55	0.0009211553	0.0018872444	2.08154561721832E-008	100	100	100	0	0	1	-360	360	;
	55	56	0.0009211553	0.0018872444	2.08154561721832E-008	100	100	100	0	0	1	-360	360	;
	54	57	0.0011723795	0.0024019474	2.64923987645968E-008	100	100	100	0	0	1	-360	360	;
	57	60	0.0025122418	0.0051470300	5.67694259241360E-008	100	100	100	0	0	1	-360	360	;
	60	62	0.0027749546	0.0013221274	1.83926822251266E-007	100	100	100	0	0	1	-360	360	;
	62	63	0.0019424682	0.0009254892	1.28748775575886E-007	100	100	100	0	0	1	-360	360	;
	63	64	0.0038849364	0.0018509784	2.57497551151773E-007	100	100	100	0	0	1	-360	360	;
	64	65	0.0047174228	0.0022476166	3.12675597827153E-007	100	100	100	0	0	1	-360	360	;
	65	66	0.0036074409	0.0017187657	2.39104868926646E-007	100	100	100	0	0	1	-360	360	;
	67	72	0.0009211553	0.0018872444	2.08154561721832E-008	100	100	100	0	0	1	-360	360	;
	72	76	0.0006699312	0.0013725413	1.51385135797696E-008	100	100	100	0	0	1	-360	360	;
	76	77	0.0013398623	0.0027450827	3.02770271595392E-008	100	100	100	0	0	1	-360	360	;
	77	78	0.0003349656	0.0006862707	7.56925678988480E-009	100	100	100	0	0	1	-360	360	;
	78	79	0.0007536726	0.0015441090	1.70000000000000E-008	100	100	100	0	0	1	-360	360	;
	78	80	0.0015910865	0.0032597857	3.60000000000000E-008	100	100	100	0	0	1	-360	360	;
	80	81	0.0015910865	0.0032597857	3.60000000000000E-008	100	100	100	0	0	1	-360	360	;
	81	82	0.0008374139	0.0017156767	1.89231419747120E-008	100	100	100	0	0	1	-360	360	;
	82	83	0.0008374139	0.0017156767	1.89231419747120E-008	100	100	100	0	0	1	-360	360	;
	76	86	0.0023447590	0.0048038947	5.30000000000000E-008	100	100	100	0	0	1	-360	360	;
	86	87	0.0015073451	0.0030882180	3.40616555544816E-008	100	100	100	0	0	1	-360	360	;
	87	89	0.0009211553	0.0018872444	2.08154561721832E-008	100	100	100	0	0	1	-360	360	;
	89	91	0.0007536726	0.0015441090	1.70000000000000E-008	100	100	100	0	0	1	-360	360	;
	91	93	0.0007536726	0.0015441090	1.70000000000000E-008	100	100	100	0	0	1	-360	360	;
	93	95	0.0010048967	0.0020588120	2.27077703696544E-008	100	100	100	0	0	1	-360	360	;
	67	97	0.0008374139	0.0017156767	1.89231419747120E-008	100	100	100	0	0	1	-360	360	;
	97	98	0.0009211553	0.0018872444	2.08154561721832E-008	100	100	100	0	0	1	-360	360	;
	98	99	0.0018423107	0.0037744887	4.16309123443664E-008	100	100	100	0	0	1	-360	360	;
	99	100	0.0010048967	0.0020588120	2.27077703696544E-008	100	100	100	0	0	1	-360	360	;
	101	105	0.0009211553	0.0018872444	2.08154561721832E-008	100	100	100	0	0	1	-360	360	;
	105	108	0.0010886381	0.0022303797	2.46000845671256E-008	100	100	100	0	0	1	-360	360	;
	13	18	0.0027634660	0.0056617331	6.24463685165496E-008	100	100	100	0	0	1	-360	360	;
	18	21	0.0010048967	0.0020588120	2.27077703696544E-008	100	100	100	0	0	1	-360	360	;
	21	23	0.0008374139	0.0017156767	1.89231419747120E-008	100	100	100	0	0	1	-360	360	;
	23	25	0.0009211553	0.0018872444	2.08154561721832E-008	100	100	100	0	0	1	-360	360	;
	25	28	0.0006699312	0.0013725413	1.51385135797696E-008	100	100	100	0	0	1	-360	360	;
	28	29	0.0010048967	0.0020588120	2.27077703696544E-008	100	100	100	0	0	1	-360	360	;
	29	30	0.0011723795	0.0024019474	2.64923987645968E-008	100	100	100	0	0	1	-360	360	;
	35	40	0.0008374139	0.0017156767	1.89231419747120E-008	100	100	100	0	0	1	-360	360	;
	40	42	0.0008374139	0.0017156767	1.89231419747120E-008	100	100	100	0	0	1	-360	360	;
	42	44	0.0006699312	0.0013725413	1.51385135797696E-008	100	100	100	0	0	1	-360	360	;
	44	47	0.0008374139	0.0017156767	1.89231419747120E-008	100	100	100	0	0	1	-360	360	;
	47	48	0.0005024484	0.0010294060	1.13538851848272E-008	100	100	100	0	0	1	-360	360	;
	47	49	0.0008374139	0.0017156767	1.89231419747120E-008	100	100	100	0	0	1	-360	360	;
	49	50	0.0008374139	0.0017156767	1.89231419747120E-008	100	100	100	0	0	1	-360	360	;
	50	51	0.0008374139	0.0017156767	1.89231419747120E-008	100	100	100	0	0	1	-360	360	;
	% Intermediate branches missing from original 123 bus case--all branch parameters are copies of the (1,150) branch from the original case
	1	149	0.0013398623	0.0027450827	3.02770271595392E-008	100	100	100	0	0	1	-360	360	;
	30	250	0.0013398623	0.0027450827	3.02770271595392E-008	100	100	100	0	0	1	-360	360	;
	35	135	0.0013398623	0.0027450827	3.02770271595392E-008	100	100	100	0	0	1	-360	360	;
	52	152	0.0013398623	0.0027450827	3.02770271595392E-008	100	100	100	0	0	1	-360	360	;
	93	94	0.0013398623	0.0027450827	3.02770271595392E-008	100	100	100	0	0	1	-360	360	;
	51	151	0.0013398623	0.0027450827	3.02770271595392E-008	100	100	100	0	0	1	-360	360	;
	108	300	0.0013398623	0.0027450827	3.02770271595392E-008	100	100	100	0	0	1	-360	360	;
	101	197	0.0013398623	0.0027450827	3.02770271595392E-008	100	100	100	0	0	1	-360	360	;
	100	450	0.0013398623	0.0027450827	3.02770271595392E-008	100	100	100	0	0	1	-360	360	;
	67	160	0.0013398623	0.0027450827	3.02770271595392E-008	100	100	100	0	0	1	-360	360	;
	60	61	0.0013398623	0.0027450827	3.02770271595392E-008	100	100	100	0	0	1	-360	360	;
	% Switched branches missing from original 123 bus case--again all branch parameters are copies of the (1,150) branch from the original case
	149	150	0.0013398623	0.0027450827	3.02770271595392E-008	100	100	100	0	0	1	-360	360	;
	18	135	0.0013398623	0.0027450827	3.02770271595392E-008	100	100	100	0	0	1	-360	360	;
	13	152	0.0013398623	0.0027450827	3.02770271595392E-008	100	100	100	0	0	1	-360	360	;
	54	94	0.0013398623	0.0027450827	3.02770271595392E-008	100	100	100	0	0	1	-360	360	;
	151	300	0.0013398623	0.0027450827	3.02770271595392E-008	100	100	100	0	0	1	-360	360	;
%	300	350	0.0013398623	0.0027450827	3.02770271595392E-008	100	100	100	0	0	1	-360	360	;
	97	197	0.0013398623	0.0027450827	3.02770271595392E-008	100	100	100	0	0	1	-360	360	;
%	450	451	0.0013398623	0.0027450827	3.02770271595392E-008	100	100	100	0	0	1	-360	360	;
%	61	610	0.0013398623	0.0027450827	3.02770271595392E-008	100	100	100	0	0	1	-360	360	;
	60	160	0.0013398623	0.0027450827	3.02770271595392E-008	100	100	100	0	0	1	-360	360	;
%	95	195	0.0013398623	0.0027450827	3.02770271595392E-008	100	100	100	0	0	1	-360	360	;
%	250	251	0.0013398623	0.0027450827	3.02770271595392E-008	100	100	100	0	0	1	-360	360	;

%copy 2:

% (switched) connections with copy 1:

	150	860	0.0010048967	0.0020588120	2.27077703696544E-008	100	100	100	0	0	1	-360	360	;
	95	910	0.0010048967	0.0020588120	2.27077703696544E-008	100	100	100	0	0	1	-360	360	;
	
	611	617	0.0010048967	0.0020588120	2.27077703696544E-008	100	100	100	0	0	1	-360	360	;
	617	618	0.0006699312	0.0013725413	1.51385135797696E-008	100	100	100	0	0	1	-360	360	;
	618	623	0.0010048967	0.0020588120	2.27077703696544E-008	100	100	100	0	0	1	-360	360	;
	662	663	0.0006699312	0.0013725413	1.51385135797696E-008	100	100	100	0	0	1	-360	360	;
	663	664	0.0004187070	0.0008578383	9.46157098735599E-009	100	100	100	0	0	1	-360	360	;
	664	665	0.0009211553	0.0018872444	2.08154561721832E-008	100	100	100	0	0	1	-360	360	;
	665	666	0.0009211553	0.0018872444	2.08154561721832E-008	100	100	100	0	0	1	-360	360	;
	664	667	0.0011723795	0.0024019474	2.64923987645968E-008	100	100	100	0	0	1	-360	360	;
	667	670	0.0025122418	0.0051470300	5.67694259241360E-008	100	100	100	0	0	1	-360	360	;
	670	672	0.0027749546	0.0013221274	1.83926822251266E-007	100	100	100	0	0	1	-360	360	;
	672	673	0.0019424682	0.0009254892	1.28748775575886E-007	100	100	100	0	0	1	-360	360	;
	673	674	0.0038849364	0.0018509784	2.57497551151773E-007	100	100	100	0	0	1	-360	360	;
	674	675	0.0047174228	0.0022476166	3.12675597827153E-007	100	100	100	0	0	1	-360	360	;
	675	676	0.0036074409	0.0017187657	2.39104868926646E-007	100	100	100	0	0	1	-360	360	;
	677	682	0.0009211553	0.0018872444	2.08154561721832E-008	100	100	100	0	0	1	-360	360	;
	682	686	0.0006699312	0.0013725413	1.51385135797696E-008	100	100	100	0	0	1	-360	360	;
	686	687	0.0013398623	0.0027450827	3.02770271595392E-008	100	100	100	0	0	1	-360	360	;
	687	688	0.0003349656	0.0006862707	7.56925678988480E-009	100	100	100	0	0	1	-360	360	;
	688	689	0.0007536726	0.0015441090	1.70000000000000E-008	100	100	100	0	0	1	-360	360	;
	688	690	0.0015910865	0.0032597857	3.60000000000000E-008	100	100	100	0	0	1	-360	360	;
	690	691	0.0015910865	0.0032597857	3.60000000000000E-008	100	100	100	0	0	1	-360	360	;
	691	692	0.0008374139	0.0017156767	1.89231419747120E-008	100	100	100	0	0	1	-360	360	;
	692	693	0.0008374139	0.0017156767	1.89231419747120E-008	100	100	100	0	0	1	-360	360	;
	686	696	0.0023447590	0.0048038947	5.30000000000000E-008	100	100	100	0	0	1	-360	360	;
	696	697	0.0015073451	0.0030882180	3.40616555544816E-008	100	100	100	0	0	1	-360	360	;
	697	699	0.0009211553	0.0018872444	2.08154561721832E-008	100	100	100	0	0	1	-360	360	;
	699	701	0.0007536726	0.0015441090	1.70000000000000E-008	100	100	100	0	0	1	-360	360	;
	701	703	0.0007536726	0.0015441090	1.70000000000000E-008	100	100	100	0	0	1	-360	360	;
	703	705	0.0010048967	0.0020588120	2.27077703696544E-008	100	100	100	0	0	1	-360	360	;
	677	707	0.0008374139	0.0017156767	1.89231419747120E-008	100	100	100	0	0	1	-360	360	;
	707	708	0.0009211553	0.0018872444	2.08154561721832E-008	100	100	100	0	0	1	-360	360	;
	708	709	0.0018423107	0.0037744887	4.16309123443664E-008	100	100	100	0	0	1	-360	360	;
	709	710	0.0010048967	0.0020588120	2.27077703696544E-008	100	100	100	0	0	1	-360	360	;
	711	715	0.0009211553	0.0018872444	2.08154561721832E-008	100	100	100	0	0	1	-360	360	;
	715	718	0.0010886381	0.0022303797	2.46000845671256E-008	100	100	100	0	0	1	-360	360	;
	623	628	0.0027634660	0.0056617331	6.24463685165496E-008	100	100	100	0	0	1	-360	360	;
	628	631	0.0010048967	0.0020588120	2.27077703696544E-008	100	100	100	0	0	1	-360	360	;
	631	633	0.0008374139	0.0017156767	1.89231419747120E-008	100	100	100	0	0	1	-360	360	;
	633	635	0.0009211553	0.0018872444	2.08154561721832E-008	100	100	100	0	0	1	-360	360	;
	635	638	0.0006699312	0.0013725413	1.51385135797696E-008	100	100	100	0	0	1	-360	360	;
	638	639	0.0010048967	0.0020588120	2.27077703696544E-008	100	100	100	0	0	1	-360	360	;
	639	640	0.0011723795	0.0024019474	2.64923987645968E-008	100	100	100	0	0	1	-360	360	;
	645	650	0.0008374139	0.0017156767	1.89231419747120E-008	100	100	100	0	0	1	-360	360	;
	650	652	0.0008374139	0.0017156767	1.89231419747120E-008	100	100	100	0	0	1	-360	360	;
	652	654	0.0006699312	0.0013725413	1.51385135797696E-008	100	100	100	0	0	1	-360	360	;
	654	657	0.0008374139	0.0017156767	1.89231419747120E-008	100	100	100	0	0	1	-360	360	;
	657	658	0.0005024484	0.0010294060	1.13538851848272E-008	100	100	100	0	0	1	-360	360	;
	657	659	0.0008374139	0.0017156767	1.89231419747120E-008	100	100	100	0	0	1	-360	360	;
	659	660	0.0008374139	0.0017156767	1.89231419747120E-008	100	100	100	0	0	1	-360	360	;
	660	661	0.0008374139	0.0017156767	1.89231419747120E-008	100	100	100	0	0	1	-360	360	;
	% Intermediate branches missing from original 123 bus case--all branch parameters are copies of the (1,150) branch from the original case
	611	759	0.0013398623	0.0027450827	3.02770271595392E-008	100	100	100	0	0	1	-360	360	;
	640	860	0.0013398623	0.0027450827	3.02770271595392E-008	100	100	100	0	0	1	-360	360	;
	645	745	0.0013398623	0.0027450827	3.02770271595392E-008	100	100	100	0	0	1	-360	360	;
	662	762	0.0013398623	0.0027450827	3.02770271595392E-008	100	100	100	0	0	1	-360	360	;
	703	704	0.0013398623	0.0027450827	3.02770271595392E-008	100	100	100	0	0	1	-360	360	;
	661	761	0.0013398623	0.0027450827	3.02770271595392E-008	100	100	100	0	0	1	-360	360	;
	718	910	0.0013398623	0.0027450827	3.02770271595392E-008	100	100	100	0	0	1	-360	360	;
	711	807	0.0013398623	0.0027450827	3.02770271595392E-008	100	100	100	0	0	1	-360	360	;
	710	1060	0.0013398623	0.0027450827	3.02770271595392E-008	100	100	100	0	0	1	-360	360	;
	677	770	0.0013398623	0.0027450827	3.02770271595392E-008	100	100	100	0	0	1	-360	360	;
	670	671	0.0013398623	0.0027450827	3.02770271595392E-008	100	100	100	0	0	1	-360	360	;
	% Switched branches missing from original 123 bus case--again all branch parameters are copies of the (1,150) branch from the original case
	759	760	0.0013398623	0.0027450827	3.02770271595392E-008	100	100	100	0	0	1	-360	360	;
	628	745	0.0013398623	0.0027450827	3.02770271595392E-008	100	100	100	0	0	1	-360	360	;
	623	762	0.0013398623	0.0027450827	3.02770271595392E-008	100	100	100	0	0	1	-360	360	;
	664	704	0.0013398623	0.0027450827	3.02770271595392E-008	100	100	100	0	0	1	-360	360	;
	761	910	0.0013398623	0.0027450827	3.02770271595392E-008	100	100	100	0	0	1	-360	360	;
%	910	960	0.0013398623	0.0027450827	3.02770271595392E-008	100	100	100	0	0	1	-360	360	;
	707	807	0.0013398623	0.0027450827	3.02770271595392E-008	100	100	100	0	0	1	-360	360	;
%	1060	1061	0.0013398623	0.0027450827	3.02770271595392E-008	100	100	100	0	0	1	-360	360	;
%	671	1220	0.0013398623	0.0027450827	3.02770271595392E-008	100	100	100	0	0	1	-360	360	;
	670	770	0.0013398623	0.0027450827	3.02770271595392E-008	100	100	100	0	0	1	-360	360	;
%	705	805	0.0013398623	0.0027450827	3.02770271595392E-008	100	100	100	0	0	1	-360	360	;
%	860	861	0.0013398623	0.0027450827	3.02770271595392E-008	100	100	100	0	0	1	-360	360	;


%copy 3:

	%switched connection with copy 1:
	300	1470	0.0010048967	0.0020588120	2.27077703696544E-008	100	100	100	0	0	1	-360	360	;
	%switched connection with copy 4:	
	1315	2130	0.0010048967	0.0020588120	2.27077703696544E-008	100	100	100	0	0	1	-360	360	;


	1221	1227	0.0010048967	0.0020588120	2.27077703696544E-008	100	100	100	0	0	1	-360	360	;
	1227	1228	0.0006699312	0.0013725413	1.51385135797696E-008	100	100	100	0	0	1	-360	360	;
	1228	1233	0.0010048967	0.0020588120	2.27077703696544E-008	100	100	100	0	0	1	-360	360	;
	1272	1273	0.0006699312	0.0013725413	1.51385135797696E-008	100	100	100	0	0	1	-360	360	;
	1273	1274	0.0004187070	0.0008578383	9.46157098735599E-009	100	100	100	0	0	1	-360	360	;
	1274	1275	0.0009211553	0.0018872444	2.08154561721832E-008	100	100	100	0	0	1	-360	360	;
	1275	1276	0.0009211553	0.0018872444	2.08154561721832E-008	100	100	100	0	0	1	-360	360	;
	1274	1277	0.0011723795	0.0024019474	2.64923987645968E-008	100	100	100	0	0	1	-360	360	;
	1277	1280	0.0025122418	0.0051470300	5.67694259241360E-008	100	100	100	0	0	1	-360	360	;
	1280	1282	0.0027749546	0.0013221274	1.83926822251266E-007	100	100	100	0	0	1	-360	360	;
	1282	1283	0.0019424682	0.0009254892	1.28748775575886E-007	100	100	100	0	0	1	-360	360	;
	1283	1284	0.0038849364	0.0018509784	2.57497551151773E-007	100	100	100	0	0	1	-360	360	;
	1284	1285	0.0047174228	0.0022476166	3.12675597827153E-007	100	100	100	0	0	1	-360	360	;
	1285	1286	0.0036074409	0.0017187657	2.39104868926646E-007	100	100	100	0	0	1	-360	360	;
	1287	1292	0.0009211553	0.0018872444	2.08154561721832E-008	100	100	100	0	0	1	-360	360	;
	1292	1296	0.0006699312	0.0013725413	1.51385135797696E-008	100	100	100	0	0	1	-360	360	;
	1296	1297	0.0013398623	0.0027450827	3.02770271595392E-008	100	100	100	0	0	1	-360	360	;
	1297	1298	0.0003349656	0.0006862707	7.56925678988480E-009	100	100	100	0	0	1	-360	360	;
	1298	1299	0.0007536726	0.0015441090	1.70000000000000E-008	100	100	100	0	0	1	-360	360	;
	1298	1300	0.0015910865	0.0032597857	3.60000000000000E-008	100	100	100	0	0	1	-360	360	;
	1300	1301	0.0015910865	0.0032597857	3.60000000000000E-008	100	100	100	0	0	1	-360	360	;
	1301	1302	0.0008374139	0.0017156767	1.89231419747120E-008	100	100	100	0	0	1	-360	360	;
	1302	1303	0.0008374139	0.0017156767	1.89231419747120E-008	100	100	100	0	0	1	-360	360	;
	1296	1306	0.0023447590	0.0048038947	5.30000000000000E-008	100	100	100	0	0	1	-360	360	;
	1306	1307	0.0015073451	0.0030882180	3.40616555544816E-008	100	100	100	0	0	1	-360	360	;
	1307	1309	0.0009211553	0.0018872444	2.08154561721832E-008	100	100	100	0	0	1	-360	360	;
	1309	1311	0.0007536726	0.0015441090	1.70000000000000E-008	100	100	100	0	0	1	-360	360	;
	1311	1313	0.0007536726	0.0015441090	1.70000000000000E-008	100	100	100	0	0	1	-360	360	;
	1313	1315	0.0010048967	0.0020588120	2.27077703696544E-008	100	100	100	0	0	1	-360	360	;
	1287	1317	0.0008374139	0.0017156767	1.89231419747120E-008	100	100	100	0	0	1	-360	360	;
	1317	1318	0.0009211553	0.0018872444	2.08154561721832E-008	100	100	100	0	0	1	-360	360	;
	1318	1319	0.0018423107	0.0037744887	4.16309123443664E-008	100	100	100	0	0	1	-360	360	;
	1319	1320	0.0010048967	0.0020588120	2.27077703696544E-008	100	100	100	0	0	1	-360	360	;
	1321	1325	0.0009211553	0.0018872444	2.08154561721832E-008	100	100	100	0	0	1	-360	360	;
	1325	1328	0.0010886381	0.0022303797	2.46000845671256E-008	100	100	100	0	0	1	-360	360	;
	1233	1238	0.0027634660	0.0056617331	6.24463685165496E-008	100	100	100	0	0	1	-360	360	;
	1238	1241	0.0010048967	0.0020588120	2.27077703696544E-008	100	100	100	0	0	1	-360	360	;
	1241	1243	0.0008374139	0.0017156767	1.89231419747120E-008	100	100	100	0	0	1	-360	360	;
	1243	1245	0.0009211553	0.0018872444	2.08154561721832E-008	100	100	100	0	0	1	-360	360	;
	1245	1248	0.0006699312	0.0013725413	1.51385135797696E-008	100	100	100	0	0	1	-360	360	;
	1248	1249	0.0010048967	0.0020588120	2.27077703696544E-008	100	100	100	0	0	1	-360	360	;
	1249	1250	0.0011723795	0.0024019474	2.64923987645968E-008	100	100	100	0	0	1	-360	360	;
	1255	1260	0.0008374139	0.0017156767	1.89231419747120E-008	100	100	100	0	0	1	-360	360	;
	1260	1262	0.0008374139	0.0017156767	1.89231419747120E-008	100	100	100	0	0	1	-360	360	;
	1262	1264	0.0006699312	0.0013725413	1.51385135797696E-008	100	100	100	0	0	1	-360	360	;
	1264	1267	0.0008374139	0.0017156767	1.89231419747120E-008	100	100	100	0	0	1	-360	360	;
	1267	1268	0.0005024484	0.0010294060	1.13538851848272E-008	100	100	100	0	0	1	-360	360	;
	1267	1269	0.0008374139	0.0017156767	1.89231419747120E-008	100	100	100	0	0	1	-360	360	;
	1269	1270	0.0008374139	0.0017156767	1.89231419747120E-008	100	100	100	0	0	1	-360	360	;
	1270	1271	0.0008374139	0.0017156767	1.89231419747120E-008	100	100	100	0	0	1	-360	360	;
	% Intermediate branches missing from original 123 bus case--all branch parameters are copies of the (1,150) branch from the original case
	1221	1369	0.0013398623	0.0027450827	3.02770271595392E-008	100	100	100	0	0	1	-360	360	;
	1250	1470	0.0013398623	0.0027450827	3.02770271595392E-008	100	100	100	0	0	1	-360	360	;
	1255	1355	0.0013398623	0.0027450827	3.02770271595392E-008	100	100	100	0	0	1	-360	360	;
	1272	1372	0.0013398623	0.0027450827	3.02770271595392E-008	100	100	100	0	0	1	-360	360	;
	1313	1314	0.0013398623	0.0027450827	3.02770271595392E-008	100	100	100	0	0	1	-360	360	;
	1271	1371	0.0013398623	0.0027450827	3.02770271595392E-008	100	100	100	0	0	1	-360	360	;
	1328	1520	0.0013398623	0.0027450827	3.02770271595392E-008	100	100	100	0	0	1	-360	360	;
	1321	1417	0.0013398623	0.0027450827	3.02770271595392E-008	100	100	100	0	0	1	-360	360	;
	1320	1670	0.0013398623	0.0027450827	3.02770271595392E-008	100	100	100	0	0	1	-360	360	;
	1287	1380	0.0013398623	0.0027450827	3.02770271595392E-008	100	100	100	0	0	1	-360	360	;
	1280	1281	0.0013398623	0.0027450827	3.02770271595392E-008	100	100	100	0	0	1	-360	360	;
	% Switched branches missing from original 123 bus case--again all branch parameters are copies of the (1,150) branch from the original case
	1369	1370	0.0013398623	0.0027450827	3.02770271595392E-008	100	100	100	0	0	1	-360	360	;
	1238	1355	0.0013398623	0.0027450827	3.02770271595392E-008	100	100	100	0	0	1	-360	360	;
	1233	1372	0.0013398623	0.0027450827	3.02770271595392E-008	100	100	100	0	0	1	-360	360	;
	1274	1314	0.0013398623	0.0027450827	3.02770271595392E-008	100	100	100	0	0	1	-360	360	;
	1371	1520	0.0013398623	0.0027450827	3.02770271595392E-008	100	100	100	0	0	1	-360	360	;
%	1520	1570	0.0013398623	0.0027450827	3.02770271595392E-008	100	100	100	0	0	1	-360	360	;
	1317	1417	0.0013398623	0.0027450827	3.02770271595392E-008	100	100	100	0	0	1	-360	360	;
%	1670	1671	0.0013398623	0.0027450827	3.02770271595392E-008	100	100	100	0	0	1	-360	360	;
%	1281	1830	0.0013398623	0.0027450827	3.02770271595392E-008	100	100	100	0	0	1	-360	360	;
	1280	1380	0.0013398623	0.0027450827	3.02770271595392E-008	100	100	100	0	0	1	-360	360	;
%	1315	1415	0.0013398623	0.0027450827	3.02770271595392E-008	100	100	100	0	0	1	-360	360	;
%	1470	1471	0.0013398623	0.0027450827	3.02770271595392E-008	100	100	100	0	0	1	-360	360	;
	

%copy 4:
	%switched connection with copy 2:	
	910	2080	0.0010048967	0.0020588120	2.27077703696544E-008	100	100	100	0	0	1	-360	360	;

	1831	1837	0.0010048967	0.0020588120	2.27077703696544E-008	100	100	100	0	0	1	-360	360	;
	1837	1838	0.0006699312	0.0013725413	1.51385135797696E-008	100	100	100	0	0	1	-360	360	;
	1838	1843	0.0010048967	0.0020588120	2.27077703696544E-008	100	100	100	0	0	1	-360	360	;
	1882	1883	0.0006699312	0.0013725413	1.51385135797696E-008	100	100	100	0	0	1	-360	360	;
	1883	1884	0.0004187070	0.0008578383	9.46157098735599E-009	100	100	100	0	0	1	-360	360	;
	1884	1885	0.0009211553	0.0018872444	2.08154561721832E-008	100	100	100	0	0	1	-360	360	;
	1885	1886	0.0009211553	0.0018872444	2.08154561721832E-008	100	100	100	0	0	1	-360	360	;
	1884	1887	0.0011723795	0.0024019474	2.64923987645968E-008	100	100	100	0	0	1	-360	360	;
	1887	1890	0.0025122418	0.0051470300	5.67694259241360E-008	100	100	100	0	0	1	-360	360	;
	1890	1892	0.0027749546	0.0013221274	1.83926822251266E-007	100	100	100	0	0	1	-360	360	;
	1892	1893	0.0019424682	0.0009254892	1.28748775575886E-007	100	100	100	0	0	1	-360	360	;
	1893	1894	0.0038849364	0.0018509784	2.57497551151773E-007	100	100	100	0	0	1	-360	360	;
	1894	1895	0.0047174228	0.0022476166	3.12675597827153E-007	100	100	100	0	0	1	-360	360	;
	1895	1896	0.0036074409	0.0017187657	2.39104868926646E-007	100	100	100	0	0	1	-360	360	;
	1897	1902	0.0009211553	0.0018872444	2.08154561721832E-008	100	100	100	0	0	1	-360	360	;
	1902	1906	0.0006699312	0.0013725413	1.51385135797696E-008	100	100	100	0	0	1	-360	360	;
	1906	1907	0.0013398623	0.0027450827	3.02770271595392E-008	100	100	100	0	0	1	-360	360	;
	1907	1908	0.0003349656	0.0006862707	7.56925678988480E-009	100	100	100	0	0	1	-360	360	;
	1908	1909	0.0007536726	0.0015441090	1.70000000000000E-008	100	100	100	0	0	1	-360	360	;
	1908	1910	0.0015910865	0.0032597857	3.60000000000000E-008	100	100	100	0	0	1	-360	360	;
	1910	1911	0.0015910865	0.0032597857	3.60000000000000E-008	100	100	100	0	0	1	-360	360	;
	1911	1912	0.0008374139	0.0017156767	1.89231419747120E-008	100	100	100	0	0	1	-360	360	;
	1912	1913	0.0008374139	0.0017156767	1.89231419747120E-008	100	100	100	0	0	1	-360	360	;
	1906	1916	0.0023447590	0.0048038947	5.30000000000000E-008	100	100	100	0	0	1	-360	360	;
	1916	1917	0.0015073451	0.0030882180	3.40616555544816E-008	100	100	100	0	0	1	-360	360	;
	1917	1919	0.0009211553	0.0018872444	2.08154561721832E-008	100	100	100	0	0	1	-360	360	;
	1919	1921	0.0007536726	0.0015441090	1.70000000000000E-008	100	100	100	0	0	1	-360	360	;
	1921	1923	0.0007536726	0.0015441090	1.70000000000000E-008	100	100	100	0	0	1	-360	360	;
	1923	1925	0.0010048967	0.0020588120	2.27077703696544E-008	100	100	100	0	0	1	-360	360	;
	1897	1927	0.0008374139	0.0017156767	1.89231419747120E-008	100	100	100	0	0	1	-360	360	;
	1927	1928	0.0009211553	0.0018872444	2.08154561721832E-008	100	100	100	0	0	1	-360	360	;
	1928	1929	0.0018423107	0.0037744887	4.16309123443664E-008	100	100	100	0	0	1	-360	360	;
	1929	1930	0.0010048967	0.0020588120	2.27077703696544E-008	100	100	100	0	0	1	-360	360	;
	1931	1935	0.0009211553	0.0018872444	2.08154561721832E-008	100	100	100	0	0	1	-360	360	;
	1935	1938	0.0010886381	0.0022303797	2.46000845671256E-008	100	100	100	0	0	1	-360	360	;
	1843	1848	0.0027634660	0.0056617331	6.24463685165496E-008	100	100	100	0	0	1	-360	360	;
	1848	1851	0.0010048967	0.0020588120	2.27077703696544E-008	100	100	100	0	0	1	-360	360	;
	1851	1853	0.0008374139	0.0017156767	1.89231419747120E-008	100	100	100	0	0	1	-360	360	;
	1853	1855	0.0009211553	0.0018872444	2.08154561721832E-008	100	100	100	0	0	1	-360	360	;
	1855	1858	0.0006699312	0.0013725413	1.51385135797696E-008	100	100	100	0	0	1	-360	360	;
	1858	1859	0.0010048967	0.0020588120	2.27077703696544E-008	100	100	100	0	0	1	-360	360	;
	1859	1860	0.0011723795	0.0024019474	2.64923987645968E-008	100	100	100	0	0	1	-360	360	;
	1865	1870	0.0008374139	0.0017156767	1.89231419747120E-008	100	100	100	0	0	1	-360	360	;
	1870	1872	0.0008374139	0.0017156767	1.89231419747120E-008	100	100	100	0	0	1	-360	360	;
	1872	1874	0.0006699312	0.0013725413	1.51385135797696E-008	100	100	100	0	0	1	-360	360	;
	1874	1877	0.0008374139	0.0017156767	1.89231419747120E-008	100	100	100	0	0	1	-360	360	;
	1877	1878	0.0005024484	0.0010294060	1.13538851848272E-008	100	100	100	0	0	1	-360	360	;
	1877	1879	0.0008374139	0.0017156767	1.89231419747120E-008	100	100	100	0	0	1	-360	360	;
	1879	1880	0.0008374139	0.0017156767	1.89231419747120E-008	100	100	100	0	0	1	-360	360	;
	1880	1881	0.0008374139	0.0017156767	1.89231419747120E-008	100	100	100	0	0	1	-360	360	;
	% Intermediate branches missing from original 123 bus case--all branch parameters are copies of the (1,150) branch from the original case
	1831	1979	0.0013398623	0.0027450827	3.02770271595392E-008	100	100	100	0	0	1	-360	360	;
	1860	2080	0.0013398623	0.0027450827	3.02770271595392E-008	100	100	100	0	0	1	-360	360	;
	1865	1965	0.0013398623	0.0027450827	3.02770271595392E-008	100	100	100	0	0	1	-360	360	;
	1882	1982	0.0013398623	0.0027450827	3.02770271595392E-008	100	100	100	0	0	1	-360	360	;
	1923	1924	0.0013398623	0.0027450827	3.02770271595392E-008	100	100	100	0	0	1	-360	360	;
	1881	1981	0.0013398623	0.0027450827	3.02770271595392E-008	100	100	100	0	0	1	-360	360	;
	1938	2130	0.0013398623	0.0027450827	3.02770271595392E-008	100	100	100	0	0	1	-360	360	;
	1931	2027	0.0013398623	0.0027450827	3.02770271595392E-008	100	100	100	0	0	1	-360	360	;
	1930	2280	0.0013398623	0.0027450827	3.02770271595392E-008	100	100	100	0	0	1	-360	360	;
	1897	1990	0.0013398623	0.0027450827	3.02770271595392E-008	100	100	100	0	0	1	-360	360	;
	1890	1891	0.0013398623	0.0027450827	3.02770271595392E-008	100	100	100	0	0	1	-360	360	;
	% Switched branches missing from original 123 bus case--again all branch parameters are copies of the (1,150) branch from the original case
	1979	1980	0.0013398623	0.0027450827	3.02770271595392E-008	100	100	100	0	0	1	-360	360	;
	1848	1965	0.0013398623	0.0027450827	3.02770271595392E-008	100	100	100	0	0	1	-360	360	;
	1843	1982	0.0013398623	0.0027450827	3.02770271595392E-008	100	100	100	0	0	1	-360	360	;
	1884	1924	0.0013398623	0.0027450827	3.02770271595392E-008	100	100	100	0	0	1	-360	360	;
	1981	2130	0.0013398623	0.0027450827	3.02770271595392E-008	100	100	100	0	0	1	-360	360	;
%	2130	2180	0.0013398623	0.0027450827	3.02770271595392E-008	100	100	100	0	0	1	-360	360	;
	1927	2027	0.0013398623	0.0027450827	3.02770271595392E-008	100	100	100	0	0	1	-360	360	;
%	2280	2281	0.0013398623	0.0027450827	3.02770271595392E-008	100	100	100	0	0	1	-360	360	;
%	1891	2440	0.0013398623	0.0027450827	3.02770271595392E-008	100	100	100	0	0	1	-360	360	;
	1890	1990	0.0013398623	0.0027450827	3.02770271595392E-008	100	100	100	0	0	1	-360	360	;
%	1925	2025	0.0013398623	0.0027450827	3.02770271595392E-008	100	100	100	0	0	1	-360	360	;
%	2080	2081	0.0013398623	0.0027450827	3.02770271595392E-008	100	100	100	0	0	1	-360	360	;

];

%%-----  OPF Data  -----%%
%% generator cost data
%	1	startup	shutdown	n	x1	y1	...	xn	yn
%	2	startup	shutdown	n	c(n-1)	...	c0
mpc.gencost = [
	2	0	0	3	0.01	40	0;
	2	0	0	3	0.01	40	0;
	2	0	0	3	0.01	40	0;
	2	0	0	3	0.01	40	0;
];
